# generated using pymatgen
data_TiV2CrO10
_symmetry_space_group_name_H-M   'P 1'
_cell_length_a   6.48105313
_cell_length_b   6.71231087
_cell_length_c   6.80078301
_cell_angle_alpha   83.81405239
_cell_angle_beta   83.27911332
_cell_angle_gamma   87.00953288
_symmetry_Int_Tables_number   1
_chemical_formula_structural   TiV2CrO10
_chemical_formula_sum   'Ti1 V2 Cr1 O10'
_cell_volume   291.87496516
_cell_formula_units_Z   1
loop_
 _symmetry_equiv_pos_site_id
 _symmetry_equiv_pos_as_xyz
  1  'x, y, z'
loop_
 _atom_site_type_symbol
 _atom_site_label
 _atom_site_symmetry_multiplicity
 _atom_site_fract_x
 _atom_site_fract_y
 _atom_site_fract_z
 _atom_site_occupancy
  Ti  Ti0  1  0.61290349  0.15654638  0.23394027  1
  V  V1  1  0.72355220  0.63151080  0.34181922  1
  V  V2  1  0.07193601  0.29064791  0.37879040  1
  Cr  Cr3  1  0.76219890  0.09005862  0.73859054  1
  O  O4  1  0.91867444  0.16919581  1.24901279  1
  O  O5  1  -0.01029993  0.22204892  0.64314049  1
  O  O6  1  0.61166773  0.11423467  0.55738447  1
  O  O7  1  0.63419187  0.17663539  0.94957261  1
  O  O8  1  0.62595844  0.45506508  0.21651991  1
  O  O9  1  0.32169052  0.20610340  0.30732013  1
  O  O10  1  0.83522323  0.86306106  0.78687927  1
  O  O11  1  0.63669303  0.87864681  0.25100911  1
  O  O12  1  0.62946766  0.58778603  0.57304115  1
  O  O13  1  0.01572903  0.54773770  0.33030983  1
