# generated using pymatgen
data_TiV2CrO10
_symmetry_space_group_name_H-M   'P 1'
_cell_length_a   7.95053201
_cell_length_b   5.07948828
_cell_length_c   14.99893377
_cell_angle_alpha   88.48493419
_cell_angle_beta   89.39964546
_cell_angle_gamma   33.25970713
_symmetry_Int_Tables_number   1
_chemical_formula_structural   TiV2CrO10
_chemical_formula_sum   'Ti1 V2 Cr1 O10'
_cell_volume   332.01065728
_cell_formula_units_Z   1
loop_
 _symmetry_equiv_pos_site_id
 _symmetry_equiv_pos_as_xyz
  1  'x, y, z'
loop_
 _atom_site_type_symbol
 _atom_site_label
 _atom_site_symmetry_multiplicity
 _atom_site_fract_x
 _atom_site_fract_y
 _atom_site_fract_z
 _atom_site_occupancy
  Ti  Ti0  1  0.54952221  0.33764896  0.45561543  1
  V  V1  1  0.70528106  0.77740564  0.06580905  1
  V  V2  1  0.74787242  0.57392534  0.30758127  1
  Cr  Cr3  1  0.19507614  0.31591901  0.46082621  1
  O  O4  1  0.71351977  0.30049269  0.34614851  1
  O  O5  1  0.82142205  0.77397763  0.51420926  1
  O  O6  1  0.17812724  0.68391218  0.48702956  1
  O  O7  1  0.47263975  -0.25198771  0.51560284  1
  O  O8  1  0.07736389  0.25767519  0.35607052  1
  O  O9  1  0.12853866  0.21309042  0.00993251  1
  O  O10  1  0.33294262  0.15348765  -0.00320541  1
  O  O11  1  0.47511436  1.11579889  0.36203414  1
  O  O12  1  0.65410168  1.15677252  0.06935668  1
  O  O13  1  0.72127975  -0.35899722  0.18011363  1
