# generated using pymatgen
data_TiV2CrO10
_symmetry_space_group_name_H-M   'P 1'
_cell_length_a   6.27672980
_cell_length_b   6.59314268
_cell_length_c   7.25976307
_cell_angle_alpha   79.66871539
_cell_angle_beta   89.72888039
_cell_angle_gamma   97.77778347
_symmetry_Int_Tables_number   1
_chemical_formula_structural   TiV2CrO10
_chemical_formula_sum   'Ti1 V2 Cr1 O10'
_cell_volume   292.71393315
_cell_formula_units_Z   1
loop_
 _symmetry_equiv_pos_site_id
 _symmetry_equiv_pos_as_xyz
  1  'x, y, z'
loop_
 _atom_site_type_symbol
 _atom_site_label
 _atom_site_symmetry_multiplicity
 _atom_site_fract_x
 _atom_site_fract_y
 _atom_site_fract_z
 _atom_site_occupancy
  Ti  Ti0  1  0.43866151  0.18507570  0.18728426  1
  V  V1  1  0.31640008  0.63400123  0.32709196  1
  V  V2  1  0.93800528  0.25770714  0.40526123  1
  Cr  Cr3  1  0.60418780  0.08819269  0.76988327  1
  O  O4  1  0.86152854  0.19018516  0.64979772  1
  O  O5  1  0.42807530  0.07832088  0.61233709  1
  O  O6  1  0.50841482  0.22479502  0.93350204  1
  O  O7  1  0.42834260  0.46856549  0.19973334  1
  O  O8  1  0.14045122  0.14522932  0.33056113  1
  O  O9  1  0.71221369  1.18215829  0.28169158  1
  O  O10  1  0.62884086  0.85864523  0.87210264  1
  O  O11  1  0.36040816  0.89198504  0.21063177  1
  O  O12  1  0.41426169  0.61278288  0.53517396  1
  O  O13  1  0.01867277  0.52625260  0.35134962  1
