# generated using pymatgen
data_TiV2CrO10
_symmetry_space_group_name_H-M   'P 1'
_cell_length_a   3.85535410
_cell_length_b   6.89381292
_cell_length_c   7.12369159
_cell_angle_alpha   79.40464754
_cell_angle_beta   92.16394825
_cell_angle_gamma   88.01037686
_symmetry_Int_Tables_number   1
_chemical_formula_structural   TiV2CrO10
_chemical_formula_sum   'Ti1 V2 Cr1 O10'
_cell_volume   185.80594742
_cell_formula_units_Z   1
loop_
 _symmetry_equiv_pos_site_id
 _symmetry_equiv_pos_as_xyz
  1  'x, y, z'
loop_
 _atom_site_type_symbol
 _atom_site_label
 _atom_site_symmetry_multiplicity
 _atom_site_fract_x
 _atom_site_fract_y
 _atom_site_fract_z
 _atom_site_occupancy
  Ti  Ti0  1  0.27663785  0.45768276  0.59994933  1
  V  V1  1  0.21531928  0.99722563  0.41583839  1
  V  V2  1  0.72970247  0.70676336  0.30471813  1
  Cr  Cr3  1  0.01067584  0.00504355  0.92420376  1
  O  O4  1  0.17428139  1.05096124  0.17432972  1
  O  O5  1  0.22966833  0.22906036  0.47441361  1
  O  O6  1  0.71208686  0.92923869  0.43091019  1
  O  O7  1  0.20653966  0.84749410  0.71096807  1
  O  O8  1  0.73220569  0.78224359  1.06339864  1
  O  O9  1  0.75023694  0.47963513  0.54552542  1
  O  O10  1  0.65734259  0.22184967  0.93197569  1
  O  O11  1  1.22880100  0.64165102  0.77059716  1
  O  O12  1  0.23441366  0.67973872  0.37636274  1
  O  O13  1  0.34392906  0.22393328  0.82329265  1
